    3
        25     -204.9348225032   6.503120E-07  -1.709817E-01   1.413655E-01
 N               -0.00000003    -0.02929841     0.32017097      -0.00000004     0.00379977     0.00053936
 O                0.00000001     1.11813261    -0.14548366       0.00000002     0.00022545     0.00045578
 O                0.00000002    -1.09248272    -0.13466521       0.00000002    -0.00355204    -0.00092797